1.mol
 OpenBabel11172323203D

 32 35  0  0  0  0  0  0  0  0999 V2000
    2.5098    3.0196   -0.7756 C   0  0  0  0  0  0  0  0  0  0  0  0
    3.3459    1.8255   -1.1054 C   0  0  0  0  0  0  0  0  0  0  0  0
    3.4006    0.6259   -0.4063 C   0  0  0  0  0  0  0  0  0  0  0  0
    4.2519   -0.1968   -0.9947 O   0  0  0  0  0  0  0  0  0  0  0  0
    4.7489    0.4206   -2.0436 C   0  0  0  0  0  0  0  0  0  0  0  0
    4.2218    1.6738   -2.1573 C   0  0  0  0  0  0  0  0  0  0  0  0
    4.6114    2.5075   -3.2043 C   0  0  0  0  0  0  0  0  0  0  0  0
    4.1524    3.6292   -3.3228 O   0  0  0  0  0  0  0  0  0  0  0  0
    5.5060    2.0514   -4.0852 O   0  0  0  0  0  0  0  0  0  0  0  0
    6.0517    0.8249   -4.0131 C   0  0  0  0  0  0  0  0  0  0  0  0
    5.6819   -0.0525   -2.9640 C   0  0  0  0  0  0  0  0  0  0  0  0
    6.2395   -1.3262   -2.8773 C   0  0  0  0  0  0  0  0  0  0  0  0
    7.1700   -1.7493   -3.8266 C   0  0  0  0  0  0  0  0  0  0  0  0
    7.5678   -0.9053   -4.8910 C   0  0  0  0  0  0  0  0  0  0  0  0
    8.5176   -1.3068   -5.8795 C   0  0  0  0  0  0  0  0  0  0  0  0
    9.2084   -2.6513   -5.9223 C   0  0  0  0  0  0  0  0  0  0  0  0
    8.8603   -0.4107   -6.9051 C   0  0  0  0  0  0  0  0  0  0  0  0
    8.2920    0.8565   -6.9736 C   0  0  0  0  0  0  0  0  0  0  0  0
    7.3665    1.2619   -6.0195 C   0  0  0  0  0  0  0  0  0  0  0  0
    6.9925    0.3999   -4.9746 C   0  0  0  0  0  0  0  0  0  0  0  0
    1.9066    2.8306    0.1373 H   0  0  0  0  0  0  0  0  0  0  0  0
    1.8240    3.2392   -1.6203 H   0  0  0  0  0  0  0  0  0  0  0  0
    3.1663    3.8966   -0.5973 H   0  0  0  0  0  0  0  0  0  0  0  0
    2.8390    0.3837    0.4863 H   0  0  0  0  0  0  0  0  0  0  0  0
    5.9567   -1.9973   -2.0749 H   0  0  0  0  0  0  0  0  0  0  0  0
    7.5571   -2.7445   -3.6951 H   0  0  0  0  0  0  0  0  0  0  0  0
    8.9378   -3.3518   -5.1170 H   0  0  0  0  0  0  0  0  0  0  0  0
   10.3072   -2.4997   -5.8649 H   0  0  0  0  0  0  0  0  0  0  0  0
    8.9703   -3.1542   -6.8835 H   0  0  0  0  0  0  0  0  0  0  0  0
    9.5790   -0.6981   -7.6637 H   0  0  0  0  0  0  0  0  0  0  0  0
    8.5719    1.5300   -7.7736 H   0  0  0  0  0  0  0  0  0  0  0  0
    6.9444    2.2559   -6.1042 H   0  0  0  0  0  0  0  0  0  0  0  0
  1  2  1  0  0  0  0
  1 21  1  0  0  0  0
  1 22  1  0  0  0  0
  1 23  1  0  0  0  0
  2  3  2  0  0  0  0
  2  6  1  0  0  0  0
  3  4  1  0  0  0  0
  3 24  1  0  0  0  0
  4  5  1  0  0  0  0
  5  6  2  0  0  0  0
  5 11  1  0  0  0  0
  6  7  1  0  0  0  0
  7  8  2  0  0  0  0
  7  9  1  0  0  0  0
  9 10  1  0  0  0  0
 10 11  2  0  0  0  0
 10 20  1  0  0  0  0
 11 12  1  0  0  0  0
 12 13  2  0  0  0  0
 12 25  1  0  0  0  0
 13 14  1  0  0  0  0
 13 26  1  0  0  0  0
 14 15  2  0  0  0  0
 14 20  1  0  0  0  0
 15 16  1  0  0  0  0
 15 17  1  0  0  0  0
 16 27  1  0  0  0  0
 16 28  1  0  0  0  0
 16 29  1  0  0  0  0
 17 18  2  0  0  0  0
 17 30  1  0  0  0  0
 18 19  1  0  0  0  0
 18 31  1  0  0  0  0
 19 20  2  0  0  0  0
 19 32  1  0  0  0  0
M  END
