23.mol
 OpenBabel11172323423D

 29 32  0  0  0  0  0  0  0  0999 V2000
    1.4278    0.3624   -0.0997 O   0  0  0  0  0  0  0  0  0  0  0  0
    2.6424    0.2758   -0.0831 C   0  0  0  0  0  0  0  0  0  0  0  0
    3.2297   -0.9240   -0.0768 O   0  0  0  0  0  0  0  0  0  0  0  0
    4.5631   -1.0890   -0.0587 C   0  0  0  0  0  0  0  0  0  0  0  0
    5.4196    0.0441   -0.0453 C   0  0  0  0  0  0  0  0  0  0  0  0
    6.8084   -0.1128   -0.0265 C   0  0  0  0  0  0  0  0  0  0  0  0
    7.3642   -1.3931   -0.0207 C   0  0  0  0  0  0  0  0  0  0  0  0
    6.5394   -2.5316   -0.0337 C   0  0  0  0  0  0  0  0  0  0  0  0
    7.1006   -3.8223   -0.0280 C   0  0  0  0  0  0  0  0  0  0  0  0
    8.4472   -3.9968   -0.0098 F   0  0  0  0  0  0  0  0  0  0  0  0
    6.2726   -4.9476   -0.0411 C   0  0  0  0  0  0  0  0  0  0  0  0
    4.8850   -4.8012   -0.0598 C   0  0  0  0  0  0  0  0  0  0  0  0
    4.3115   -3.5279   -0.0658 C   0  0  0  0  0  0  0  0  0  0  0  0
    5.1263   -2.3808   -0.0529 C   0  0  0  0  0  0  0  0  0  0  0  0
    4.8075    1.2954   -0.0519 C   0  0  0  0  0  0  0  0  0  0  0  0
    5.3751    2.4811   -0.0424 O   0  0  0  0  0  0  0  0  0  0  0  0
    4.4149    3.3898   -0.0544 C   0  0  0  0  0  0  0  0  0  0  0  0
    3.1745    2.7637   -0.0723 C   0  0  0  0  0  0  0  0  0  0  0  0
    1.8348    3.4260   -0.0899 C   0  0  0  0  0  0  0  0  0  0  0  0
    3.4481    1.4138   -0.0704 C   0  0  0  0  0  0  0  0  0  0  0  0
    7.4621    0.7510   -0.0162 H   0  0  0  0  0  0  0  0  0  0  0  0
    8.4430   -1.4902   -0.0061 H   0  0  0  0  0  0  0  0  0  0  0  0
    6.7079   -5.9387   -0.0366 H   0  0  0  0  0  0  0  0  0  0  0  0
    4.2508   -5.6783   -0.0699 H   0  0  0  0  0  0  0  0  0  0  0  0
    3.2317   -3.4455   -0.0804 H   0  0  0  0  0  0  0  0  0  0  0  0
    4.5883    4.4578   -0.0506 H   0  0  0  0  0  0  0  0  0  0  0  0
    1.9482    4.5306   -0.0869 H   0  0  0  0  0  0  0  0  0  0  0  0
    1.2567    3.1217    0.8074 H   0  0  0  0  0  0  0  0  0  0  0  0
    1.2817    3.1241   -1.0036 H   0  0  0  0  0  0  0  0  0  0  0  0
  1  2  2  0  0  0  0
  2  3  1  0  0  0  0
  2 20  1  0  0  0  0
  3  4  1  0  0  0  0
  4  5  2  0  0  0  0
  4 14  1  0  0  0  0
  5  6  1  0  0  0  0
  5 15  1  0  0  0  0
  6  7  2  0  0  0  0
  6 21  1  0  0  0  0
  7  8  1  0  0  0  0
  7 22  1  0  0  0  0
  8  9  2  0  0  0  0
  8 14  1  0  0  0  0
  9 10  1  0  0  0  0
  9 11  1  0  0  0  0
 11 12  2  0  0  0  0
 11 23  1  0  0  0  0
 12 13  1  0  0  0  0
 12 24  1  0  0  0  0
 13 14  2  0  0  0  0
 13 25  1  0  0  0  0
 15 16  1  0  0  0  0
 15 20  2  0  0  0  0
 16 17  1  0  0  0  0
 17 18  2  0  0  0  0
 17 26  1  0  0  0  0
 18 19  1  0  0  0  0
 18 20  1  0  0  0  0
 19 27  1  0  0  0  0
 19 28  1  0  0  0  0
 19 29  1  0  0  0  0
M  END
