26.mol
 OpenBabel11172323473D

 35 38  0  0  0  0  0  0  0  0999 V2000
    1.4119    0.4085    0.0860 O   0  0  0  0  0  0  0  0  0  0  0  0
    2.6262    0.3293    0.0385 C   0  0  0  0  0  0  0  0  0  0  0  0
    3.2175   -0.8641   -0.0644 O   0  0  0  0  0  0  0  0  0  0  0  0
    4.5509   -1.0215   -0.1221 C   0  0  0  0  0  0  0  0  0  0  0  0
    5.4022    0.1134   -0.0735 C   0  0  0  0  0  0  0  0  0  0  0  0
    6.7895   -0.0352   -0.1338 C   0  0  0  0  0  0  0  0  0  0  0  0
    7.3491   -1.3086   -0.2440 C   0  0  0  0  0  0  0  0  0  0  0  0
    6.5311   -2.4551   -0.2960 C   0  0  0  0  0  0  0  0  0  0  0  0
    7.1022   -3.7443   -0.4056 C   0  0  0  0  0  0  0  0  0  0  0  0
    6.2530   -4.8662   -0.4717 C   0  0  0  0  0  0  0  0  0  0  0  0
    4.8687   -4.7164   -0.4088 C   0  0  0  0  0  0  0  0  0  0  0  0
    4.3014   -3.4499   -0.2876 C   0  0  0  0  0  0  0  0  0  0  0  0
    5.1176   -2.3076   -0.2336 C   0  0  0  0  0  0  0  0  0  0  0  0
    8.4566   -3.8644   -0.4827 O   0  0  0  0  0  0  0  0  0  0  0  0
    9.2454   -4.9258   -0.1599 C   0  0  0  0  0  0  0  0  0  0  0  0
    8.8759   -5.9424    0.8867 C   0  0  0  0  0  0  0  0  0  0  0  0
   10.3413   -5.0172   -0.6890 O   0  0  0  0  0  0  0  0  0  0  0  0
    4.7866    1.3585    0.0342 C   0  0  0  0  0  0  0  0  0  0  0  0
    5.3501    2.5446    0.0956 O   0  0  0  0  0  0  0  0  0  0  0  0
    4.3874    3.4458    0.1902 C   0  0  0  0  0  0  0  0  0  0  0  0
    3.1497    2.8143    0.1897 C   0  0  0  0  0  0  0  0  0  0  0  0
    1.8084    3.4676    0.2793 C   0  0  0  0  0  0  0  0  0  0  0  0
    3.4276    1.4691    0.0888 C   0  0  0  0  0  0  0  0  0  0  0  0
    7.4400    0.8303   -0.0963 H   0  0  0  0  0  0  0  0  0  0  0  0
    8.4280   -1.3908   -0.2881 H   0  0  0  0  0  0  0  0  0  0  0  0
    6.6535   -5.8636   -0.5860 H   0  0  0  0  0  0  0  0  0  0  0  0
    4.2302   -5.5891   -0.4601 H   0  0  0  0  0  0  0  0  0  0  0  0
    3.2222   -3.3685   -0.2436 H   0  0  0  0  0  0  0  0  0  0  0  0
    7.9098   -5.7122    1.3770 H   0  0  0  0  0  0  0  0  0  0  0  0
    9.6516   -5.9448    1.6811 H   0  0  0  0  0  0  0  0  0  0  0  0
    8.8282   -6.9522    0.4281 H   0  0  0  0  0  0  0  0  0  0  0  0
    4.5573    4.5124    0.2567 H   0  0  0  0  0  0  0  0  0  0  0  0
    1.9180    4.5703    0.3500 H   0  0  0  0  0  0  0  0  0  0  0  0
    1.2744    3.1010    1.1805 H   0  0  0  0  0  0  0  0  0  0  0  0
    1.2138    3.2231   -0.6255 H   0  0  0  0  0  0  0  0  0  0  0  0
  1  2  2  0  0  0  0
  2  3  1  0  0  0  0
  2 23  1  0  0  0  0
  3  4  1  0  0  0  0
  4  5  2  0  0  0  0
  4 13  1  0  0  0  0
  5  6  1  0  0  0  0
  5 18  1  0  0  0  0
  6  7  2  0  0  0  0
  6 24  1  0  0  0  0
  7  8  1  0  0  0  0
  7 25  1  0  0  0  0
  8  9  2  0  0  0  0
  8 13  1  0  0  0  0
  9 10  1  0  0  0  0
  9 14  1  0  0  0  0
 10 11  2  0  0  0  0
 10 26  1  0  0  0  0
 11 12  1  0  0  0  0
 11 27  1  0  0  0  0
 12 13  2  0  0  0  0
 12 28  1  0  0  0  0
 14 15  1  0  0  0  0
 15 16  1  0  0  0  0
 15 17  2  0  0  0  0
 16 29  1  0  0  0  0
 16 30  1  0  0  0  0
 16 31  1  0  0  0  0
 18 19  1  0  0  0  0
 18 23  2  0  0  0  0
 19 20  1  0  0  0  0
 20 21  2  0  0  0  0
 20 32  1  0  0  0  0
 21 22  1  0  0  0  0
 21 23  1  0  0  0  0
 22 33  1  0  0  0  0
 22 34  1  0  0  0  0
 22 35  1  0  0  0  0
M  END
