32.mol
 OpenBabel11172323533D

 32 35  0  0  0  0  0  0  0  0999 V2000
    0.9209   -0.1672   -0.0087 C   0  0  0  0  0  0  0  0  0  0  0  0
    2.3988   -0.1447   -0.0072 N   0  0  0  0  0  0  0  0  0  0  0  0
    3.0616    1.0760   -0.0064 C   0  0  0  0  0  0  0  0  0  0  0  0
    2.4305    2.1220   -0.0068 O   0  0  0  0  0  0  0  0  0  0  0  0
    4.4642    1.1230   -0.0049 C   0  0  0  0  0  0  0  0  0  0  0  0
    5.1986    2.3158   -0.0040 C   0  0  0  0  0  0  0  0  0  0  0  0
    4.7511    3.5527   -0.0042 O   0  0  0  0  0  0  0  0  0  0  0  0
    5.7939    4.3648   -0.0030 C   0  0  0  0  0  0  0  0  0  0  0  0
    6.9671    3.6221   -0.0019 C   0  0  0  0  0  0  0  0  0  0  0  0
    8.3649    4.1513   -0.0003 C   0  0  0  0  0  0  0  0  0  0  0  0
    6.5635    2.3054   -0.0026 C   0  0  0  0  0  0  0  0  0  0  0  0
    7.2557    1.0976   -0.0021 C   0  0  0  0  0  0  0  0  0  0  0  0
    8.4731    1.0663   -0.0009 O   0  0  0  0  0  0  0  0  0  0  0  0
    6.5551   -0.0381   -0.0031 O   0  0  0  0  0  0  0  0  0  0  0  0
    5.2115   -0.0765   -0.0044 C   0  0  0  0  0  0  0  0  0  0  0  0
    4.5382   -1.3054   -0.0053 C   0  0  0  0  0  0  0  0  0  0  0  0
    5.2622   -2.5138   -0.0048 C   0  0  0  0  0  0  0  0  0  0  0  0
    4.5975   -3.7379   -0.0056 C   0  0  0  0  0  0  0  0  0  0  0  0
    3.2070   -3.7762   -0.0069 C   0  0  0  0  0  0  0  0  0  0  0  0
    2.4698   -2.5913   -0.0075 C   0  0  0  0  0  0  0  0  0  0  0  0
    3.1151   -1.3286   -0.0067 C   0  0  0  0  0  0  0  0  0  0  0  0
    0.4661    0.8448   -0.0089 H   0  0  0  0  0  0  0  0  0  0  0  0
    0.5498   -0.6879    0.8998 H   0  0  0  0  0  0  0  0  0  0  0  0
    0.5516   -0.6876   -0.9180 H   0  0  0  0  0  0  0  0  0  0  0  0
    5.7242    5.4445   -0.0028 H   0  0  0  0  0  0  0  0  0  0  0  0
    8.3593    5.2617   -0.0001 H   0  0  0  0  0  0  0  0  0  0  0  0
    8.8994    3.7949   -0.9054 H   0  0  0  0  0  0  0  0  0  0  0  0
    8.8975    3.7945    0.9057 H   0  0  0  0  0  0  0  0  0  0  0  0
    6.3453   -2.5178   -0.0037 H   0  0  0  0  0  0  0  0  0  0  0  0
    5.1633   -4.6608   -0.0052 H   0  0  0  0  0  0  0  0  0  0  0  0
    2.6954   -4.7303   -0.0076 H   0  0  0  0  0  0  0  0  0  0  0  0
    1.3934   -2.6849   -0.0086 H   0  0  0  0  0  0  0  0  0  0  0  0
  1  2  1  0  0  0  0
  1 22  1  0  0  0  0
  1 23  1  0  0  0  0
  1 24  1  0  0  0  0
  2  3  1  0  0  0  0
  2 21  1  0  0  0  0
  3  4  2  0  0  0  0
  3  5  1  0  0  0  0
  5  6  1  0  0  0  0
  5 15  2  0  0  0  0
  6  7  1  0  0  0  0
  6 11  2  0  0  0  0
  7  8  1  0  0  0  0
  8  9  2  0  0  0  0
  8 25  1  0  0  0  0
  9 10  1  0  0  0  0
  9 11  1  0  0  0  0
 10 26  1  0  0  0  0
 10 27  1  0  0  0  0
 10 28  1  0  0  0  0
 11 12  1  0  0  0  0
 12 13  2  0  0  0  0
 12 14  1  0  0  0  0
 14 15  1  0  0  0  0
 15 16  1  0  0  0  0
 16 17  2  0  0  0  0
 16 21  1  0  0  0  0
 17 18  1  0  0  0  0
 17 29  1  0  0  0  0
 18 19  2  0  0  0  0
 18 30  1  0  0  0  0
 19 20  1  0  0  0  0
 19 31  1  0  0  0  0
 20 21  2  0  0  0  0
 20 32  1  0  0  0  0
M  END
