33.mol
 OpenBabel11172323553D

 38 41  0  0  0  0  0  0  0  0999 V2000
    1.5216    0.1014    0.4309 O   0  0  0  0  0  0  0  0  0  0  0  0
    2.7299    0.0790    0.2810 C   0  0  0  0  0  0  0  0  0  0  0  0
    3.3751   -1.0854    0.1966 O   0  0  0  0  0  0  0  0  0  0  0  0
    4.7069   -1.1854    0.0322 C   0  0  0  0  0  0  0  0  0  0  0  0
    5.4971   -0.0298   -0.0625 C   0  0  0  0  0  0  0  0  0  0  0  0
    6.8819   -0.1381   -0.2323 C   0  0  0  0  0  0  0  0  0  0  0  0
    7.5310    0.8972   -0.3104 O   0  0  0  0  0  0  0  0  0  0  0  0
    7.5220   -1.3827   -0.3035 N   0  0  0  0  0  0  0  0  0  0  0  0
    9.0144   -1.2357   -0.4570 C   0  0  0  0  0  0  0  0  0  0  0  0
   10.0131   -2.3996   -0.3536 C   0  0  0  0  0  0  0  0  0  0  0  0
   10.0920   -2.9969    1.0591 C   0  0  0  0  0  0  0  0  0  0  0  0
    6.7383   -2.5457   -0.2356 C   0  0  0  0  0  0  0  0  0  0  0  0
    7.2456   -3.8691   -0.3520 C   0  0  0  0  0  0  0  0  0  0  0  0
    6.4229   -4.9936   -0.2758 C   0  0  0  0  0  0  0  0  0  0  0  0
    5.0597   -4.8571   -0.0870 C   0  0  0  0  0  0  0  0  0  0  0  0
    4.5065   -3.5916    0.0179 C   0  0  0  0  0  0  0  0  0  0  0  0
    5.3165   -2.4392   -0.0587 C   0  0  0  0  0  0  0  0  0  0  0  0
    4.8228    1.1980    0.0244 C   0  0  0  0  0  0  0  0  0  0  0  0
    5.3234    2.4135   -0.0338 O   0  0  0  0  0  0  0  0  0  0  0  0
    4.3279    3.2735    0.0923 C   0  0  0  0  0  0  0  0  0  0  0  0
    3.1306    2.5865    0.2388 C   0  0  0  0  0  0  0  0  0  0  0  0
    1.7696    3.1800    0.4096 C   0  0  0  0  0  0  0  0  0  0  0  0
    3.4699    1.2527    0.1926 C   0  0  0  0  0  0  0  0  0  0  0  0
    9.3705   -0.5341    0.3330 H   0  0  0  0  0  0  0  0  0  0  0  0
    9.2015   -0.7436   -1.4379 H   0  0  0  0  0  0  0  0  0  0  0  0
   11.0226   -1.9776   -0.5558 H   0  0  0  0  0  0  0  0  0  0  0  0
    9.8775   -3.1365   -1.1661 H   0  0  0  0  0  0  0  0  0  0  0  0
   10.3851   -2.2098    1.7861 H   0  0  0  0  0  0  0  0  0  0  0  0
   10.8651   -3.7934    1.0797 H   0  0  0  0  0  0  0  0  0  0  0  0
    9.1338   -3.4254    1.4066 H   0  0  0  0  0  0  0  0  0  0  0  0
    8.2570   -4.1223   -0.5090 H   0  0  0  0  0  0  0  0  0  0  0  0
    6.8513   -5.9843   -0.3671 H   0  0  0  0  0  0  0  0  0  0  0  0
    4.4282   -5.7345   -0.0296 H   0  0  0  0  0  0  0  0  0  0  0  0
    3.4342   -3.5209    0.1548 H   0  0  0  0  0  0  0  0  0  0  0  0
    4.4476    4.3488    0.0809 H   0  0  0  0  0  0  0  0  0  0  0  0
    1.8267    4.2889    0.4060 H   0  0  0  0  0  0  0  0  0  0  0  0
    1.3356    2.8458    1.3750 H   0  0  0  0  0  0  0  0  0  0  0  0
    1.1125    2.8514   -0.4224 H   0  0  0  0  0  0  0  0  0  0  0  0
  1  2  2  0  0  0  0
  2  3  1  0  0  0  0
  2 23  1  0  0  0  0
  3  4  1  0  0  0  0
  4  5  2  0  0  0  0
  4 17  1  0  0  0  0
  5  6  1  0  0  0  0
  5 18  1  0  0  0  0
  6  7  2  0  0  0  0
  6  8  1  0  0  0  0
  8  9  1  0  0  0  0
  8 12  1  0  0  0  0
  9 10  1  0  0  0  0
  9 24  1  0  0  0  0
  9 25  1  0  0  0  0
 10 11  1  0  0  0  0
 10 26  1  0  0  0  0
 10 27  1  0  0  0  0
 11 28  1  0  0  0  0
 11 29  1  0  0  0  0
 11 30  1  0  0  0  0
 12 13  2  0  0  0  0
 12 17  1  0  0  0  0
 13 14  1  0  0  0  0
 13 31  1  0  0  0  0
 14 15  2  0  0  0  0
 14 32  1  0  0  0  0
 15 16  1  0  0  0  0
 15 33  1  0  0  0  0
 16 17  2  0  0  0  0
 16 34  1  0  0  0  0
 18 19  1  0  0  0  0
 18 23  2  0  0  0  0
 19 20  1  0  0  0  0
 20 21  2  0  0  0  0
 20 35  1  0  0  0  0
 21 22  1  0  0  0  0
 21 23  1  0  0  0  0
 22 36  1  0  0  0  0
 22 37  1  0  0  0  0
 22 38  1  0  0  0  0
M  END
