40.mol
 OpenBabel11172323583D

 29 32  0  0  0  0  0  0  0  0999 V2000
    1.5590    0.2302   -0.1028 S   0  0  0  0  0  0  0  0  0  0  0  0
    2.9920    0.1639   -0.0812 C   0  0  0  0  0  0  0  0  0  0  0  0
    3.5881   -1.0315   -0.0769 O   0  0  0  0  0  0  0  0  0  0  0  0
    4.9197   -1.1948   -0.0573 C   0  0  0  0  0  0  0  0  0  0  0  0
    5.7737   -0.0627   -0.0398 C   0  0  0  0  0  0  0  0  0  0  0  0
    7.1638   -0.2187   -0.0192 C   0  0  0  0  0  0  0  0  0  0  0  0
    7.7206   -1.4988   -0.0158 C   0  0  0  0  0  0  0  0  0  0  0  0
    6.8953   -2.6343   -0.0330 C   0  0  0  0  0  0  0  0  0  0  0  0
    7.4607   -3.9193   -0.0295 C   0  0  0  0  0  0  0  0  0  0  0  0
    6.6396   -5.0492   -0.0465 C   0  0  0  0  0  0  0  0  0  0  0  0
    5.2507   -4.9080   -0.0671 C   0  0  0  0  0  0  0  0  0  0  0  0
    4.6720   -3.6362   -0.0708 C   0  0  0  0  0  0  0  0  0  0  0  0
    5.4833   -2.4863   -0.0539 C   0  0  0  0  0  0  0  0  0  0  0  0
    5.1620    1.1879   -0.0441 C   0  0  0  0  0  0  0  0  0  0  0  0
    5.7421    2.3668   -0.0305 O   0  0  0  0  0  0  0  0  0  0  0  0
    4.7955    3.2861   -0.0413 C   0  0  0  0  0  0  0  0  0  0  0  0
    3.5470    2.6786   -0.0627 C   0  0  0  0  0  0  0  0  0  0  0  0
    2.2284    3.3856   -0.0800 C   0  0  0  0  0  0  0  0  0  0  0  0
    3.7987    1.3149   -0.0643 C   0  0  0  0  0  0  0  0  0  0  0  0
    7.8173    0.6452   -0.0058 H   0  0  0  0  0  0  0  0  0  0  0  0
    8.7992   -1.6020    0.0002 H   0  0  0  0  0  0  0  0  0  0  0  0
    8.5362   -4.0500   -0.0136 H   0  0  0  0  0  0  0  0  0  0  0  0
    7.0812   -6.0373   -0.0437 H   0  0  0  0  0  0  0  0  0  0  0  0
    4.6200   -5.7876   -0.0802 H   0  0  0  0  0  0  0  0  0  0  0  0
    3.5919   -3.5568   -0.0869 H   0  0  0  0  0  0  0  0  0  0  0  0
    4.9840    4.3516   -0.0342 H   0  0  0  0  0  0  0  0  0  0  0  0
    2.3777    4.4859   -0.0733 H   0  0  0  0  0  0  0  0  0  0  0  0
    1.6393    3.1021    0.8168 H   0  0  0  0  0  0  0  0  0  0  0  0
    1.6669    3.1094   -0.9966 H   0  0  0  0  0  0  0  0  0  0  0  0
  1  2  2  0  0  0  0
  2  3  1  0  0  0  0
  2 19  1  0  0  0  0
  3  4  1  0  0  0  0
  4  5  2  0  0  0  0
  4 13  1  0  0  0  0
  5  6  1  0  0  0  0
  5 14  1  0  0  0  0
  6  7  2  0  0  0  0
  6 20  1  0  0  0  0
  7  8  1  0  0  0  0
  7 21  1  0  0  0  0
  8  9  2  0  0  0  0
  8 13  1  0  0  0  0
  9 10  1  0  0  0  0
  9 22  1  0  0  0  0
 10 11  2  0  0  0  0
 10 23  1  0  0  0  0
 11 12  1  0  0  0  0
 11 24  1  0  0  0  0
 12 13  2  0  0  0  0
 12 25  1  0  0  0  0
 14 15  1  0  0  0  0
 14 19  2  0  0  0  0
 15 16  1  0  0  0  0
 16 17  2  0  0  0  0
 16 26  1  0  0  0  0
 17 18  1  0  0  0  0
 17 19  1  0  0  0  0
 18 27  1  0  0  0  0
 18 28  1  0  0  0  0
 18 29  1  0  0  0  0
M  END
