
  ACD/LABS07292510413D

 35 38  0  0  0  0  0  0  0  0  1 V2000
   16.0557   -7.5007   -0.0468 S   0  0  0  0  0  0  0  0  0  0  0  0
   17.4238   -7.4910   -0.0502 C   0  0  0  0  0  0  0  0  0  0  0  0
   18.0526   -8.5989   -0.0418 O   0  0  0  0  0  0  0  0  0  0  0  0
   19.3296   -8.6884   -0.0440 C   0  0  0  0  0  0  0  0  0  0  0  0
   20.0828   -7.5686   -0.0558 C   0  0  0  0  0  0  0  0  0  0  0  0
   21.4106   -7.6476   -0.0582 C   0  0  0  0  0  0  0  0  0  0  0  0
   22.0069   -8.8364   -0.0490 C   0  0  0  0  0  0  0  0  0  0  0  0
   21.2876   -9.9774   -0.0371 C   0  0  0  0  0  0  0  0  0  0  0  0
   19.9306   -9.8919   -0.0346 C   0  0  0  0  0  0  0  0  0  0  0  0
   19.1971  -11.0114   -0.0229 C   0  0  0  0  0  0  0  0  0  0  0  0
   19.7839  -12.1996   -0.0137 C   0  0  0  0  0  0  0  0  0  0  0  0
   21.1077  -12.2972   -0.0159 C   0  0  0  0  0  0  0  0  0  0  0  0
   21.8867  -11.1988   -0.0276 C   0  0  0  0  0  0  0  0  0  0  0  0
   23.3389  -11.3047   -0.0300 C   0  0  0  0  0  0  0  0  0  0  0  0
   23.8895  -12.6561   -0.0193 C   0  0  0  0  0  0  0  0  0  0  0  0
   19.4383   -6.4076   -0.0646 C   0  0  0  0  0  0  0  0  0  0  0  0
   19.9321   -5.2561   -0.0760 O   0  0  0  0  0  0  0  0  0  0  0  0
   18.9847   -4.4277   -0.0812 C   0  0  0  0  0  0  0  0  0  0  0  0
   17.8258   -5.0686   -0.0728 C   0  0  0  0  0  0  0  0  0  0  0  0
   16.5346   -4.4613   -0.0751 C   0  0  0  0  0  0  0  0  0  0  0  0
   18.1338   -6.3546   -0.0620 C   0  0  0  0  0  0  0  0  0  0  0  0
   21.9888   -6.7913   -0.0672 H   0  0  0  0  0  0  0  0  0  0  0  0
   23.0376   -8.8443   -0.0513 H   0  0  0  0  0  0  0  0  0  0  0  0
   18.1647  -10.9739   -0.0208 H   0  0  0  0  0  0  0  0  0  0  0  0
   19.2064  -13.0555   -0.0047 H   0  0  0  0  0  0  0  0  0  0  0  0
   21.5068  -13.2467   -0.0084 H   0  0  0  0  0  0  0  0  0  0  0  0
   23.7090  -10.8212   -0.8979 H   0  0  0  0  0  0  0  0  0  0  0  0
   23.7130  -10.8057    0.8272 H   0  0  0  0  0  0  0  0  0  0  0  0
   23.5823  -13.1892   -0.8816 H   0  0  0  0  0  0  0  0  0  0  0  0
   23.5864  -13.1737    0.8539 H   0  0  0  0  0  0  0  0  0  0  0  0
   24.9474  -12.6049   -0.0222 H   0  0  0  0  0  0  0  0  0  0  0  0
   19.1112   -3.4036   -0.0906 H   0  0  0  0  0  0  0  0  0  0  0  0
   16.6217   -3.4060   -0.0847 H   0  0  0  0  0  0  0  0  0  0  0  0
   16.0027   -4.7489    0.7935 H   0  0  0  0  0  0  0  0  0  0  0  0
   15.9986   -4.7644   -0.9359 H   0  0  0  0  0  0  0  0  0  0  0  0
  1  2  2  0  0  0  0
  2  3  1  0  0  0  0
  2 21  1  0  0  0  0
  3  4  1  0  0  0  0
  4  5  2  0  0  0  0
  4  9  1  0  0  0  0
  5  6  1  0  0  0  0
  5 16  1  0  0  0  0
  6  7  2  0  0  0  0
  6 22  1  0  0  0  0
  7  8  1  0  0  0  0
  7 23  1  0  0  0  0
  8  9  2  0  0  0  0
  8 13  1  0  0  0  0
  9 10  1  0  0  0  0
 10 11  2  0  0  0  0
 10 24  1  0  0  0  0
 11 12  1  0  0  0  0
 11 25  1  0  0  0  0
 12 13  2  0  0  0  0
 12 26  1  0  0  0  0
 13 14  1  0  0  0  0
 14 15  1  0  0  0  0
 14 27  1  0  0  0  0
 14 28  1  0  0  0  0
 15 29  1  0  0  0  0
 15 30  1  0  0  0  0
 15 31  1  0  0  0  0
 16 17  1  0  0  0  0
 16 21  2  0  0  0  0
 17 18  1  0  0  0  0
 18 19  2  0  0  0  0
 18 32  1  0  0  0  0
 19 20  1  0  0  0  0
 19 21  1  0  0  0  0
 20 33  1  0  0  0  0
 20 34  1  0  0  0  0
 20 35  1  0  0  0  0
M  END
