48.mol
 OpenBabel11182300203D

 32 35  0  0  0  0  0  0  0  0999 V2000
    1.3142   -0.0072    0.4449 C   0  0  0  0  0  0  0  0  0  0  0  0
    2.7143   -0.0106   -0.0745 C   0  0  0  0  0  0  0  0  0  0  0  0
    3.0181   -0.0165   -1.3595 O   0  0  0  0  0  0  0  0  0  0  0  0
    4.3282   -0.0180   -1.4592 C   0  0  0  0  0  0  0  0  0  0  0  0
    4.9104   -0.0130   -0.2206 C   0  0  0  0  0  0  0  0  0  0  0  0
    3.8740   -0.0081    0.6960 C   0  0  0  0  0  0  0  0  0  0  0  0
    3.9387   -0.0016    2.1937 C   0  0  0  0  0  0  0  0  0  0  0  0
    6.3038   -0.0136   -0.1057 C   0  0  0  0  0  0  0  0  0  0  0  0
    6.8517   -0.0092    0.9810 O   0  0  0  0  0  0  0  0  0  0  0  0
    7.0396   -0.0190   -1.2204 O   0  0  0  0  0  0  0  0  0  0  0  0
    6.5083   -0.0240   -2.4532 C   0  0  0  0  0  0  0  0  0  0  0  0
    5.0987   -0.0237   -2.6193 C   0  0  0  0  0  0  0  0  0  0  0  0
    4.5313   -0.0288   -3.8978 C   0  0  0  0  0  0  0  0  0  0  0  0
    5.3553   -0.0344   -5.0246 C   0  0  0  0  0  0  0  0  0  0  0  0
    6.7524   -0.0348   -4.8856 C   0  0  0  0  0  0  0  0  0  0  0  0
    7.5758   -0.0403   -6.0227 C   0  0  0  0  0  0  0  0  0  0  0  0
    8.9657   -0.0407   -5.8848 C   0  0  0  0  0  0  0  0  0  0  0  0
    9.5457   -0.0356   -4.6148 C   0  0  0  0  0  0  0  0  0  0  0  0
    8.7405   -0.0301   -3.4728 C   0  0  0  0  0  0  0  0  0  0  0  0
    7.3382   -0.0296   -3.5920 C   0  0  0  0  0  0  0  0  0  0  0  0
    0.5951   -0.0103   -0.4008 H   0  0  0  0  0  0  0  0  0  0  0  0
    1.1454    0.9014    1.0596 H   0  0  0  0  0  0  0  0  0  0  0  0
    1.1439   -0.9100    1.0676 H   0  0  0  0  0  0  0  0  0  0  0  0
    4.9816   -0.0008    2.5637 H   0  0  0  0  0  0  0  0  0  0  0  0
    3.4268   -0.9034    2.5891 H   0  0  0  0  0  0  0  0  0  0  0  0
    3.4282    0.9046    2.5811 H   0  0  0  0  0  0  0  0  0  0  0  0
    3.4556   -0.0286   -4.0256 H   0  0  0  0  0  0  0  0  0  0  0  0
    4.8997   -0.0383   -6.0078 H   0  0  0  0  0  0  0  0  0  0  0  0
    7.1451   -0.0443   -7.0170 H   0  0  0  0  0  0  0  0  0  0  0  0
    9.5954   -0.0450   -6.7652 H   0  0  0  0  0  0  0  0  0  0  0  0
   10.6234   -0.0360   -4.5148 H   0  0  0  0  0  0  0  0  0  0  0  0
    9.2178   -0.0262   -2.5006 H   0  0  0  0  0  0  0  0  0  0  0  0
  1  2  1  0  0  0  0
  1 21  1  0  0  0  0
  1 22  1  0  0  0  0
  1 23  1  0  0  0  0
  2  3  1  0  0  0  0
  2  6  2  0  0  0  0
  3  4  1  0  0  0  0
  4  5  2  0  0  0  0
  4 12  1  0  0  0  0
  5  6  1  0  0  0  0
  5  8  1  0  0  0  0
  6  7  1  0  0  0  0
  7 24  1  0  0  0  0
  7 25  1  0  0  0  0
  7 26  1  0  0  0  0
  8  9  2  0  0  0  0
  8 10  1  0  0  0  0
 10 11  1  0  0  0  0
 11 12  2  0  0  0  0
 11 20  1  0  0  0  0
 12 13  1  0  0  0  0
 13 14  2  0  0  0  0
 13 27  1  0  0  0  0
 14 15  1  0  0  0  0
 14 28  1  0  0  0  0
 15 16  2  0  0  0  0
 15 20  1  0  0  0  0
 16 17  1  0  0  0  0
 16 29  1  0  0  0  0
 17 18  2  0  0  0  0
 17 30  1  0  0  0  0
 18 19  1  0  0  0  0
 18 31  1  0  0  0  0
 19 20  2  0  0  0  0
 19 32  1  0  0  0  0
M  END
