49.mol
 OpenBabel11182300223D

 38 41  0  0  0  0  0  0  0  0999 V2000
    1.2639   -0.9421    0.3593 C   0  0  0  0  0  0  0  0  0  0  0  0
    2.6658   -0.4559    0.1898 C   0  0  0  0  0  0  0  0  0  0  0  0
    2.9871    0.8173    0.0518 O   0  0  0  0  0  0  0  0  0  0  0  0
    4.2932    0.8872   -0.0737 C   0  0  0  0  0  0  0  0  0  0  0  0
    4.8545   -0.3593   -0.0181 C   0  0  0  0  0  0  0  0  0  0  0  0
    6.2400   -0.5037   -0.1311 C   0  0  0  0  0  0  0  0  0  0  0  0
    6.7709   -1.5979   -0.0851 O   0  0  0  0  0  0  0  0  0  0  0  0
    6.9877    0.5913   -0.2922 O   0  0  0  0  0  0  0  0  0  0  0  0
    6.4765    1.8318   -0.3532 C   0  0  0  0  0  0  0  0  0  0  0  0
    5.0778    2.0256   -0.2425 C   0  0  0  0  0  0  0  0  0  0  0  0
    4.5339    3.3085   -0.2971 C   0  0  0  0  0  0  0  0  0  0  0  0
    5.3676    4.4134   -0.4681 C   0  0  0  0  0  0  0  0  0  0  0  0
    6.7667    4.2609   -0.5937 C   0  0  0  0  0  0  0  0  0  0  0  0
    7.3211    2.9486   -0.5239 C   0  0  0  0  0  0  0  0  0  0  0  0
    8.7120    2.7757   -0.6203 C   0  0  0  0  0  0  0  0  0  0  0  0
    9.5512    3.8738   -0.7752 C   0  0  0  0  0  0  0  0  0  0  0  0
    9.0221    5.1590   -0.8469 C   0  0  0  0  0  0  0  0  0  0  0  0
    7.6351    5.3779   -0.7700 C   0  0  0  0  0  0  0  0  0  0  0  0
    7.1388    6.8085   -0.8784 C   0  0  0  0  0  0  0  0  0  0  0  0
    6.4145    7.0651   -2.2029 C   0  0  0  0  0  0  0  0  0  0  0  0
    3.8093   -1.2494    0.1532 C   0  0  0  0  0  0  0  0  0  0  0  0
    3.8522   -2.7427    0.2770 C   0  0  0  0  0  0  0  0  0  0  0  0
    0.5603   -0.0835    0.3503 H   0  0  0  0  0  0  0  0  0  0  0  0
    1.1681   -1.4779    1.3266 H   0  0  0  0  0  0  0  0  0  0  0  0
    1.0040   -1.6313   -0.4709 H   0  0  0  0  0  0  0  0  0  0  0  0
    3.4648    3.4589   -0.2048 H   0  0  0  0  0  0  0  0  0  0  0  0
    4.8964    5.3841   -0.4896 H   0  0  0  0  0  0  0  0  0  0  0  0
    9.1585    1.7902   -0.5691 H   0  0  0  0  0  0  0  0  0  0  0  0
   10.6217    3.7277   -0.8434 H   0  0  0  0  0  0  0  0  0  0  0  0
    9.7057    5.9893   -0.9751 H   0  0  0  0  0  0  0  0  0  0  0  0
    7.9948    7.5182   -0.8542 H   0  0  0  0  0  0  0  0  0  0  0  0
    6.4936    7.0536   -0.0083 H   0  0  0  0  0  0  0  0  0  0  0  0
    7.1053    6.8740   -3.0518 H   0  0  0  0  0  0  0  0  0  0  0  0
    6.0900    8.1261   -2.2457 H   0  0  0  0  0  0  0  0  0  0  0  0
    5.5208    6.4262   -2.3345 H   0  0  0  0  0  0  0  0  0  0  0  0
    4.8854   -3.1342    0.2162 H   0  0  0  0  0  0  0  0  0  0  0  0
    3.2557   -3.1981   -0.5406 H   0  0  0  0  0  0  0  0  0  0  0  0
    3.4193   -3.0446    1.2534 H   0  0  0  0  0  0  0  0  0  0  0  0
  1  2  1  0  0  0  0
  1 23  1  0  0  0  0
  1 24  1  0  0  0  0
  1 25  1  0  0  0  0
  2  3  1  0  0  0  0
  2 21  2  0  0  0  0
  3  4  1  0  0  0  0
  4  5  2  0  0  0  0
  4 10  1  0  0  0  0
  5  6  1  0  0  0  0
  5 21  1  0  0  0  0
  6  7  2  0  0  0  0
  6  8  1  0  0  0  0
  8  9  1  0  0  0  0
  9 10  2  0  0  0  0
  9 14  1  0  0  0  0
 10 11  1  0  0  0  0
 11 12  2  0  0  0  0
 11 26  1  0  0  0  0
 12 13  1  0  0  0  0
 12 27  1  0  0  0  0
 13 14  2  0  0  0  0
 13 18  1  0  0  0  0
 14 15  1  0  0  0  0
 15 16  2  0  0  0  0
 15 28  1  0  0  0  0
 16 17  1  0  0  0  0
 16 29  1  0  0  0  0
 17 18  2  0  0  0  0
 17 30  1  0  0  0  0
 18 19  1  0  0  0  0
 19 20  1  0  0  0  0
 19 31  1  0  0  0  0
 19 32  1  0  0  0  0
 20 33  1  0  0  0  0
 20 34  1  0  0  0  0
 20 35  1  0  0  0  0
 21 22  1  0  0  0  0
 22 36  1  0  0  0  0
 22 37  1  0  0  0  0
 22 38  1  0  0  0  0
M  END
